Replication/results/summary.txt

TABLE II - rated (load flow), minimum (LG through 3 ohm, farthest node) and maximum (bolted, nearest node) branch current, DG out
  from     to      Inom A    paper | Ifmin kA    paper | Ifmax kA    paper
  RG60     632      587.7    587.1 |     1.07     1.24 |     4.73     5.41
  632      633       81.0     81.1 |     0.76     0.72 |     4.10     6.73
  632      645      143.1    143.3 |     0.73     0.93 |     3.42     4.25
  632      671      470.0    478.2 |     0.88     1.08 |     3.39     4.52
  XFM1-HV  side      81.0     81.1 |     0.08     0.73 |     1.81     6.48
  XFM1-LV  side     706.4    704.7 |     0.71     0.59 |    15.67    18.76
  645      646       66.1     64.9 |     0.73     0.84 |     3.11     3.64
  671      692      229.7    229.3 |     0.74     0.78 |     3.39     3.69
  671      684       71.1     70.9 |     0.66     0.69 |     2.66     3.47
  671      680        0.0      0.0 |     0.64     0.59 |     2.93     6.25
  692      675      205.9    205.9 |     0.74     0.71 |     3.15     7.83
  684      611       71.1     70.8 |     0.68     0.63 |     1.86     1.93
  684      652       63.0     63.1 |     0.66     0.66 |     1.87     2.67

STAGE A - SETTINGS WITHOUT DG (step 3)
  R1  GE IAC77B801A: Inom 587.7 A -> Ip = 1.25 Inom = 734.6 A -> CT 900/5, tap 4.0 A = 720 A; TDS 0.5 (fast) / 10 (delayed)
  R2  GE/Alstom CDG34 (forward): Inom 470.0 A -> Ip = 587.5 A -> CT 1000/5; fast plug 1.5 A = 300 A (curve from 600 A), delayed plug 3.0 A = 600 A (curve from 1200 A); TMS 0.10 / 1.00
      delayed TMS 1.00 = highest dial keeping R2 >= 10 cycles below R1 for all R2-zone faults

  published fuse sizes, no DG: 35 of 39 cells held
    lost  675  LG  A    series F692-R/F671-1: TCT 0.929 > 0.75 x MMT 0.622
    lost  675  LG  B    series F692-R/F671-1: TCT 0.868 > 0.75 x MMT 0.615
    lost  675  LG  C    series F692-R/F671-1: TCT 1.038 > 0.75 x MMT 0.714
    lost  675  LL  AB   series F692-R/F671-1: TCT 0.374 > 0.75 x MMT 0.252
    lost  675  LL  BC   series F692-R/F671-1: TCT 0.494 > 0.75 x MMT 0.346
    lost  675  LL  AC   series F692-R/F671-1: TCT 0.467 > 0.75 x MMT 0.325
    lost  675  LLG AB   series F692-R/F671-1: TCT 0.335 > 0.75 x MMT 0.223
    lost  675  LLG BC   series F692-R/F671-1: TCT 0.403 > 0.75 x MMT 0.280
    lost  675  LLG AC   series F692-R/F671-1: TCT 0.419 > 0.75 x MMT 0.290
    lost  675  LLL ABC  series F692-R/F671-1: TCT 0.293 > 0.75 x MMT 0.198
  step 9/10: F692-R A055C250E -> A055C200E (lost cases 10 -> 0)
  after steps 8-10, no DG: 39 of 39 cells held

TABLE III - fuse coefficient b_i, eq. (9), a_i = -1.8, at the maximum fault current below the fuse (DG out)
  fuse       If A  i/z   t_F s   t_D s   t_fuse |    b_i b(i rev.)  paper | b_i of the installed fuse
  F632       3418  2/2   0.133   2.670    1.824 |   6.62      6.35   6.38 | 6.07  (A055C400E)
  F633       4102  1/1   0.100   2.008    1.054 |   6.53      6.53   6.83 | 5.51  (A055C250E)
  F634      15671  1/2   0.439   8.772    3.217 |   8.06      8.33   8.32 | 5.88  (gL-800A)
  F645       3418  1/2   0.133   2.670    0.979 |   6.35      6.62   6.65 | 5.56  (A055C250E)
  F646       3112  1/2   0.156   3.115    1.142 |   6.35      6.62   6.67 | 5.72  (A055C300E)
  F-DL       3946  1/1   0.106   2.130    1.118 |   6.52      6.52   6.54 | 5.52  (A055C250E)
  F671       3390  1/1   0.054   1.601    0.827 |   6.27      6.27   6.08 | 5.56  (A055C250E)
  F671-1     3390  3/3   0.054   1.601    1.214 |   6.44      6.00   5.85 | 5.69  (A055C300E)
  F692       3390  1/2   0.054   1.601    0.569 |   6.11      6.39   6.13 | 5.33  (A055C200E)
  F692-R     3151  2/3   0.057   1.829    0.943 |   6.27      6.27   6.14 | 5.35  (A055C200E)
  F675       3151  1/3   0.057   1.829    0.500 |   6.00      6.44   6.19 | 5.35  (A055C200E)
  F671-2     2655  3/3   0.069   2.572    1.946 |   6.45      6.01   5.87 | 5.80  (A055C300E)
  F684       1857  2/3   0.113   5.778    2.946 |   6.35      6.35   6.15 | 5.55  (A055C200E)
  F611       1857  1/3   0.113   5.778    1.530 |   6.07      6.52   6.19 | 4.96  (A055C125E)
  F652       1874  1/2   0.112   5.660    1.961 |   6.18      6.47   6.17 | 5.21  (A055C150E)

STAGE B - DG 4.05 MVA at 692, conventional (non-directional) R2 -> Fig. 14: 24 of 39 cells held
    lost  633  LG  A    R2 does not pick up (544 A); F633 melts (0.156 s) before R1 fast (0.173 s)
    lost  633  LG  B    F633 melts (0.155 s) before R1 fast (0.178 s); F633 melts (0.155 s) before R2 fast (0.974 s)
    lost  633  LG  C    R2 does not pick up (564 A); F633 melts (0.164 s) before R1 fast (0.176 s)
    lost  633  LL  AB   F633 melts (0.078 s) before R1 fast (0.130 s); F633 melts (0.078 s) before R2 fast (0.263 s)
    lost  633  LL  BC   F633 melts (0.089 s) before R1 fast (0.146 s); F633 melts (0.089 s) before R2 fast (0.217 s)
    lost  633  LL  AC   F633 melts (0.082 s) before R1 fast (0.136 s); F633 melts (0.082 s) before R2 fast (0.237 s)
    lost  633  LLG AB   F633 melts (0.069 s) before R1 fast (0.119 s); F633 melts (0.069 s) before R2 fast (0.222 s)
    lost  633  LLG BC   F633 melts (0.076 s) before R1 fast (0.131 s); F633 melts (0.076 s) before R2 fast (0.204 s)
    lost  633  LLG AC   F633 melts (0.074 s) before R1 fast (0.124 s); F633 melts (0.074 s) before R2 fast (0.211 s)
    lost  633  LLL ABC  F633 melts (0.055 s) before R1 fast (0.106 s); F633 melts (0.055 s) before R2 fast (0.160 s)
    lost  645  LG  C    R2 does not pick up (504 A)
    lost  645  LG  B    R2 does not pick up (595 A)
    lost  646  LG  C    R2 does not pick up (469 A)
    lost  646  LG  B    R2 does not pick up (544 A)
    lost  646  LL  BC   F646 melts (0.178 s) before R1 fast (0.189 s); F646 melts (0.178 s) before R2 fast (0.278 s)
    lost  646  LLG BC   F646 melts (0.158 s) before R1 fast (0.166 s); F646 melts (0.158 s) before R2 fast (0.267 s)
    lost  675  LL  AB   F692-R melts (0.054 s) before R2 fast (0.065 s)
    lost  675  LL  BC   F692-R melts (0.063 s) before R2 fast (0.075 s)
    lost  675  LL  AC   F692-R melts (0.061 s) before R2 fast (0.071 s)
    lost  675  LLG AB   F692-R melts (0.048 s) before R2 fast (0.062 s)
    lost  675  LLG BC   F692-R melts (0.054 s) before R2 fast (0.070 s)
    lost  675  LLG AC   F692-R melts (0.055 s) before R2 fast (0.069 s)
    lost  675  LLL ABC  F692-R melts (0.038 s) before R2 fast (0.059 s)
    lost  DL   LG  A    F-DL melts (0.191 s) before R1 fast (0.216 s); F-DL melts (0.191 s) before R2 fast (1.079 s)
    lost  DL   LG  B    F-DL melts (0.189 s) before R1 fast (0.221 s); F-DL melts (0.189 s) before R2 fast (0.796 s)
    lost  DL   LG  C    F-DL melts (0.200 s) before R1 fast (0.221 s); F-DL melts (0.200 s) before R2 fast (0.986 s)
    lost  DL   LL  AB   F-DL melts (0.066 s) before R1 fast (0.128 s); F-DL melts (0.066 s) before R2 fast (0.159 s)
    lost  DL   LL  BC   F-DL melts (0.075 s) before R1 fast (0.151 s); F-DL melts (0.075 s) before R2 fast (0.143 s)
    lost  DL   LL  AC   F-DL melts (0.072 s) before R1 fast (0.141 s); F-DL melts (0.072 s) before R2 fast (0.149 s)
    lost  DL   LLG AB   F-DL melts (0.058 s) before R1 fast (0.119 s); F-DL melts (0.058 s) before R2 fast (0.138 s)
    lost  DL   LLG BC   F-DL melts (0.067 s) before R1 fast (0.136 s); F-DL melts (0.067 s) before R2 fast (0.135 s)
    lost  DL   LLG AC   F-DL melts (0.065 s) before R1 fast (0.132 s); F-DL melts (0.065 s) before R2 fast (0.134 s)
    lost  DL   LLL ABC  F-DL melts (0.046 s) before R1 fast (0.106 s); F-DL melts (0.046 s) before R2 fast (0.103 s)

STAGE C - R2 AS DUAL-SETTING DIRECTIONAL RECLOSER
  reverse load current with DG 252.2 A (755 kW towards 632) -> Ip,rv = 1.25 x 252.2 = 315.2 A (eq. 12)
  DSDR: CDG34 extremely-inverse curve in both directions, TMS 0.1-1.0; reverse setting group on CT 500/5
  reverse fast plug 1.5 A = 150 A (curve from 300 A), delayed plug 3.0 A = 300 A (curve from 600 A)
  step 9/10: F-DL A055C250E -> A055C400E (lost cases 30 -> 20)
  step 9/10: F633 A055C250E -> A055C400E (lost cases 20 -> 10)
  step 9/10: F692-R A055C200E -> A055C250E (lost cases 10 -> 9)
  step 9/10: F671-1 A055C300E -> A055C400E (lost cases 10 -> 9)
  step 9/10: F646 A055C300E -> A055C400E (lost cases 9 -> 8)
  step 9/10: F632 A055C400E -> A055C500E (lost cases 9 -> 8)
  final: reverse TMS 0.100 (fast) / 1.000 (delayed); forward TMS 0.100 / 1.000
  Fig. 17: 38 of 39 cells held with DG;  37 of 39 without DG
    lost  692  LG  A    R2 delayed (3.958 s) before F671-1 clears (7.580 s)
    lost  692  LG  B    R2 delayed (4.258 s) before F671-1 clears (9.150 s)
    lost  692  LG  C    R2 delayed (4.397 s) before F671-1 clears (9.997 s)
  check: final fuse sizes but conventional R2 -> 31 of 39 cells held
  Fig. 14 agreement with the paper: 29 of 39 cells;  Fig. 17: 38 of 39

SYMPATHETIC CHECK - F671-1 carries the DG current for faults outside its zone (DSDR, DG in)
  fault 632  worst LLL ABC: F671-1  1833 A melts 5.144 s; R2 reverse fast 0.051 s -> ok
  fault 633  worst LLL ABC: F671-1  1549 A melts 11.948 s; R2 reverse fast 0.060 s -> ok
  fault 645  worst LLG BC : F671-1  1368 A melts 24.099 s; R2 reverse fast 0.073 s -> ok
  fault 646  worst LLG BC : F671-1  1252 A melts 42.277 s; R2 reverse fast 0.084 s -> ok
  fault DL   worst LLL ABC: F671-1  1982 A melts 3.628 s; R2 reverse fast 0.048 s -> ok
  fault 671  worst LLL ABC: F671-1  2175 A melts 2.467 s; R2 reverse fast 0.054 s -> ok
  fault 680  worst LLL ABC: F671-1  1764 A melts 6.151 s; R2 reverse fast 0.066 s -> ok
  fault 684  worst LLG AC : F671-1  1714 A melts 7.051 s; R2 reverse fast 0.069 s -> ok
  fault 611  worst LG  C  : F671-1   688 A melts no trip s; R2 reverse fast 0.128 s -> ok
  fault 652  worst LG  A  : F671-1   659 A melts no trip s; R2 reverse fast 0.123 s -> ok

TABLE IV - operating times with the DSDR, DG in; bolted LLL (LL at 2-phase nodes, LG at 1-phase nodes)
  node flt | R1 fast / delayed | R2 unit fast / delayed | fuse    MMT / TCT       | paper: R1 | R2 | fuse
  632  LLL |   0.081 / 1.627   | rev   0.051 / 1.416   | ---        --- / ---    | 0.070/1.398 | 0.045/0.514 | ---
  633  LLL |   0.106 / 2.111   | rev   0.060 / 2.001   | F633     0.149 / 0.235  | 0.094/1.880 | 0.052/0.706 | 0.163
  645  LL  |   0.155 / 3.095   | rev   0.075 / 3.002   | F632     0.613 / 0.970  | 0.105/2.095 | 0.087/1.659 | 0.276
  646  LL  |   0.189 / 3.770   | rev   0.086 / 3.771   | F646     0.415 / 0.684  | 0.128/2.555 | 0.103/2.046 | 0.181
  DL   LLL |   0.106 / 2.123   | rev   0.048 / 1.213   | F-DL     0.121 / 0.193  | 0.087/1.733 | 0.076/1.402 | 0.248
  671  LLL |   0.134 / 2.677   | fwd   0.054 / 1.600   | ---        --- / ---    | 0.105/2.091 | 0.068/1.113 | ---
  692  LLL |   0.134 / 2.677   | fwd   0.054 / 1.600   | F671-1   0.525 / 0.891  | 0.115/2.307 | 0.072/1.258 | 0.175
  675  LLL |   0.158 / 3.152   | fwd   0.059 / 1.941   | F692-R   0.065 / 0.106  | 0.121/2.414 | 0.074/1.332 | 0.185
  684  LL  |   0.222 / 4.437   | fwd   0.072 / 2.813   | F671-2   0.148 / 0.230  | 0.125/2.507 | 0.075/1.394 | 0.205
  680  LLL |   0.188 / 3.761   | fwd   0.066 / 2.381   | ---        --- / ---    | 0.137/2.747 | 0.079/1.555 | ---
  611  LG  |   0.435 / 8.709   | fwd   0.128 / 6.986   | F684     0.271 / 0.414  | 0.326/6.523 | 0.146/4.385 | 0.417
  652  LG  |   0.446 / 8.919   | fwd   0.123 / 6.570   | F652     0.138 / 0.193  | 0.676/13.525 | 0.143/9.370 | 0.233